
#======================================================================
# CRYSTAL DATA
#----------------------------------------------------------------------
data_VESTA_phase_1

_chemical_name_common                  'NiO Antiferromagnetic Rhombohedral'
_cell_length_a                         2.954859
_cell_length_b                         2.954869
_cell_length_c                         37.040310
_cell_angle_alpha                      90.000000
_cell_angle_beta                       90.000000
_cell_angle_gamma                      119.999893
_cell_volume                           280.079061
_space_group_name_H-M_alt              'P 1'
_space_group_IT_number                 1

loop_
_space_group_symop_operation_xyz
   'x, y, z'

loop_
   _atom_site_label
   _atom_site_occupancy
   _atom_site_fract_x
   _atom_site_fract_y
   _atom_site_fract_z
   _atom_site_adp_type
   _atom_site_U_iso_or_equiv
   _atom_site_type_symbol
   Ni1        1.0     0.000000     0.000000     0.000000    Uiso  ? Ni
   Ni2        1.0     0.333333     0.666667     0.128804    Uiso  ? Ni
   Ni3        1.0     0.666667     0.333333     0.257609    Uiso  ? Ni
   Ni4        1.0     0.000000     0.000000     0.193206    Uiso  ? Ni
   Ni5        1.0     0.333333     0.666667     0.322011    Uiso  ? Ni
   Ni6        1.0     0.666667     0.333333     0.064402    Uiso  ? Ni
   O1         1.0     0.000000     0.000000     0.289810    Uiso  ? O
   O2         1.0     0.333333     0.666667     0.032201    Uiso  ? O
   O3         1.0     0.666667     0.333333     0.161005    Uiso  ? O
   O4         1.0     0.000000     0.000000     0.096603    Uiso  ? O
   O5         1.0     0.333333     0.666667     0.225408    Uiso  ? O
   O6         1.0     0.666667     0.333333     0.354212    Uiso  ? O
